src/test/resources/pst_special/process1/padricianoOutage/20260620_1130_FO5_IT0.uct
##C 2007.05.01
##N
##ZIT
IMFTV121 MONFALC.CE g 0 0 358.06     7.2     5.0     9.9     3.3     6.3     0.6     0.4     8.4
IPDRV121 PADRICIANO g 0 0 167.29    37.2    -4.9     5.1     4.7     7.5     5.3     8.1     8.9
IPDRV122 PADRICIANO g 0 0 147.27     5.3     7.8     9.3     5.3     4.2     1.9     0.4     0.0
IRDPVA21 REDIPUGLIA g 0 0 232.18    24.5    03.0     4.0     5.4     5.7     4.4     6.7     2.4
##ZXX
XPA_DI21 DIVJ    211  0 0 418.99  -448.8   -21.3     0.1     8.3     9.3     5.7     4.4     9.9
##L
IMFTV121 IPDRV121 1 0  4.829 36.137   896.23    800 XXXXXXXXXXXX
IMFTV121 IRDPVA21 1 0  5.730  1.734    30.92    716 XXXXXXXXXXXX
IRDPVA21 IPDRV121 1 0  1.339 72.244   361.00    713 XXXXXXXXXXXX
XPA_DI21 IPDRV122 1 0  8.867  9.315    81.20    900 XXXXXXXXXXXX
##T
IPDRV121 IPDRV122 1 8 464.9 959.6  370.  7.610 78.509   -3.151  8.466    928 XXXXXXXXXXXX
##R
IPDRV121 IPDRV122 1                    9.663  09.7 16   0    0. SYMM
